<?xml version="1.0" encoding="UTF-8"?>

<!-- generated on Tue 07 Dec 2021 07:14:43 PM UTC by Eclipse SUMO netedit Version 1.8.0
<configuration xmlns:xsi="http://www.w3.org/2001/XMLSchema-instance" xsi:noNamespaceSchemaLocation="http://sumo.dlr.de/xsd/netconvertConfiguration.xsd">

    <input>
        <sumo-net-file value="/home/veins/Documents/veins_project/veins_project/simulations/intersection.net.xml"/>
    </input>

    <output>
        <output-file value="/home/veins/Documents/veins_project/veins_project/simulations/intersection.net.xml"/>
    </output>

    <processing>
        <geometry.min-radius.fix.railways value="false"/>
        <geometry.max-grade.fix value="false"/>
        <offset.disable-normalization value="true"/>
        <lefthand value="false"/>
    </processing>

    <junctions>
        <no-turnarounds value="true"/>
        <junctions.corner-detail value="5"/>
        <junctions.limit-turn-speed value="5.5"/>
        <rectangular-lane-cut value="false"/>
    </junctions>

    <pedestrian>
        <walkingareas value="false"/>
    </pedestrian>

    <report>
        <aggregate-warnings value="5"/>
    </report>

</configuration>
-->

<net version="1.6" junctionCornerDetail="5" limitTurnSpeed="5.50" xmlns:xsi="http://www.w3.org/2001/XMLSchema-instance" xsi:noNamespaceSchemaLocation="http://sumo.dlr.de/xsd/net_file.xsd">

    <location netOffset="0.00,0.00" convBoundary="-140.00,0.00,140.00,99.00" origBoundary="-10000000000.00,-10000000000.00,10000000000.00,10000000000.00" projParameter="!"/>

    <edge id=":point_middle_0" function="internal">
        <lane id=":point_middle_0_0" index="0" speed="10" length="15.02" shape="7.16,9.42 3.45,6.00 0.13,3.56 -2.80,2.09 -5.33,1.60"/>
    </edge>
    <edge id=":point_middle_1" function="internal">
        <lane id=":point_middle_1_0" index="0" speed="10" length="19.31" shape="7.16,9.42 3.31,4.60 2.79,1.16 5.59,-0.91 11.73,-1.60"/>
    </edge>
    <edge id=":point_middle_2" function="internal">
        <lane id=":point_middle_2_0" index="0" speed="10" length="9.74" shape="11.73,1.60 8.63,1.95 7.22,2.99 7.48,4.73 9.42,7.16"/>
    </edge>
    <edge id=":point_middle_3" function="internal">
        <lane id=":point_middle_3_0" index="0" speed="10" length="17.05" shape="11.73,1.60 -5.33,1.60"/>
    </edge>
    <edge id=":point_middle_4" function="internal">
        <lane id=":point_middle_4_0" index="0" speed="10" length="17.05" shape="-5.33,-1.60 11.73,-1.60"/>
    </edge>
    <edge id=":point_middle_5" function="internal">
        <lane id=":point_middle_5_0" index="0" speed="10" length="17.52" shape="-5.33,-1.60 -2.16,-1.05 1.36,0.59 5.22,3.33 9.42,7.16"/>
    </edge>

    <edge id="street_left_to_middle" from="point_left" to="point_middle" priority="-1" length="140.00">
        <lane id="street_left_to_middle_0" index="0" speed="10" length="140.00" shape="-140.00,-1.60 -5.33,-1.60"/>
    </edge>
    <edge id="street_middle_to_left" from="point_middle" to="point_left" priority="-1" length="140.00">
        <lane id="street_middle_to_left_0" index="0" speed="10" length="140.00" shape="-5.33,1.60 -140.00,1.60"/>
    </edge>
    <edge id="street_middle_to_right" from="point_middle" to="point_right" priority="-1" length="140.00">
        <lane id="street_middle_to_right_0" index="0" speed="10" length="140.00" shape="11.73,-1.60 140.00,-1.60"/>
    </edge>
    <edge id="street_middle_to_top" from="point_middle" to="point_top" priority="-1" length="140.00">
        <lane id="street_middle_to_top_0" index="0" speed="10" length="140.00" shape="9.42,7.16 100.13,97.87"/>
    </edge>
    <edge id="street_right_to_middle" from="point_right" to="point_middle" priority="-1" length="140.00">
        <lane id="street_right_to_middle_0" index="0" speed="10" length="140.00" shape="140.00,1.60 11.73,1.60"/>
    </edge>
    <edge id="street_top_to_middle" from="point_top" to="point_middle" priority="-1" length="140.00">
        <lane id="street_top_to_middle_0" index="0" speed="10" length="140.00" shape="97.87,100.13 7.16,9.42"/>
    </edge>

    <junction id="point_left" type="dead_end" x="-140.00" y="0.00" incLanes="street_middle_to_left_0" intLanes="" shape="-140.00,0.00 -140.00,3.20 -140.00,0.00"/>
    
    <!-- not right before left (e.g. crash without alg.) -->
    <junction id="point_middle" type="unregulated" x="0.00" y="0.00" incLanes="street_top_to_middle_0 street_right_to_middle_0 street_left_to_middle_0" intLanes=":point_middle_0_0 :point_middle_1_0 :point_middle_2_0 :point_middle_3_0 :point_middle_4_0 :point_middle_5_0" shape="6.03,10.55 10.55,6.03 9.43,4.46 9.43,3.91 9.82,3.51 10.58,3.28 11.73,3.20 11.73,-3.20 -5.33,-3.20 -5.33,3.20 -2.29,4.02 -0.49,5.04 1.50,6.47 3.67,8.31">
    <!-- right before left:
    <junction id="point_middle" type="right_before_left" x="0.00" y="0.00" incLanes="street_top_to_middle_0 street_right_to_middle_0 street_left_to_middle_0" intLanes=":point_middle_0_0 :point_middle_1_0 :point_middle_2_0 :point_middle_3_0 :point_middle_4_0 :point_middle_5_0" shape="6.03,10.55 10.55,6.03 9.43,4.46 9.43,3.91 9.82,3.51 10.58,3.28 11.73,3.20 11.73,-3.20 -5.33,-3.20 -5.33,3.20 -2.29,4.02 -0.49,5.04 1.50,6.47 3.67,8.31">
    -->
        <request index="0" response="000000" foes="001000" cont="0"/>
        <request index="1" response="110000" foes="111000" cont="0"/>
        <request index="2" response="000000" foes="100000" cont="0"/>
        <request index="3" response="000011" foes="100011" cont="0"/>
        <request index="4" response="000000" foes="000010" cont="0"/>
        <request index="5" response="001100" foes="001110" cont="0"/>
    </junction>
    <junction id="point_right" type="dead_end" x="140.00" y="0.00" incLanes="street_middle_to_right_0" intLanes="" shape="140.00,0.00 140.00,-3.20 140.00,0.00"/>
    <junction id="point_top" type="dead_end" x="99.00" y="99.00" incLanes="street_middle_to_top_0" intLanes="" shape="99.00,99.00 101.26,96.74 99.00,99.00"/>

    <connection from="street_left_to_middle" to="street_middle_to_right" fromLane="0" toLane="0" via=":point_middle_4_0" dir="s" state="="/>
    <connection from="street_left_to_middle" to="street_middle_to_top" fromLane="0" toLane="0" via=":point_middle_5_0" dir="l" state="="/>
    <connection from="street_right_to_middle" to="street_middle_to_top" fromLane="0" toLane="0" via=":point_middle_2_0" dir="r" state="="/>
    <connection from="street_right_to_middle" to="street_middle_to_left" fromLane="0" toLane="0" via=":point_middle_3_0" dir="s" state="="/>
    <connection from="street_top_to_middle" to="street_middle_to_left" fromLane="0" toLane="0" via=":point_middle_0_0" dir="r" state="="/>
    <connection from="street_top_to_middle" to="street_middle_to_right" fromLane="0" toLane="0" via=":point_middle_1_0" dir="l" state="="/>

    <connection from=":point_middle_0" to="street_middle_to_left" fromLane="0" toLane="0" dir="r" state="M"/>
    <connection from=":point_middle_1" to="street_middle_to_right" fromLane="0" toLane="0" dir="l" state="M"/>
    <connection from=":point_middle_2" to="street_middle_to_top" fromLane="0" toLane="0" dir="r" state="M"/>
    <connection from=":point_middle_3" to="street_middle_to_left" fromLane="0" toLane="0" dir="s" state="M"/>
    <connection from=":point_middle_4" to="street_middle_to_right" fromLane="0" toLane="0" dir="s" state="M"/>
    <connection from=":point_middle_5" to="street_middle_to_top" fromLane="0" toLane="0" dir="l" state="M"/>

</net>
