<?xml version="1.0" encoding="UTF-8"?>

<!-- generated on Sat 06 Nov 2021 10:25:11 AM UTC by Eclipse SUMO GUI Version 1.8.0
-->

<configuration xmlns:xsi="http://www.w3.org/2001/XMLSchema-instance" xsi:noNamespaceSchemaLocation="http://sumo.dlr.de/xsd/sumoConfiguration.xsd">

    <input>
        <net-file value="/home/veins/uni/tutorials/intersection.net.xml"/>
        <route-files value="/home/veins/uni/tutorials/intersection.rou.xml"/>
    </input>

</configuration>
