<?xml version="1.0" encoding="UTF-8"?>

<!-- generated on Sat 06 Nov 2021 10:49:30 AM UTC by Eclipse SUMO netedit Version 1.8.0
<configuration xmlns:xsi="http://www.w3.org/2001/XMLSchema-instance" xsi:noNamespaceSchemaLocation="http://sumo.dlr.de/xsd/netconvertConfiguration.xsd">

    <input>
        <sumo-net-file value="/home/veins/uni/tutorials/intersection.net.xml"/>
    </input>

    <output>
        <output-file value="/home/veins/uni/tutorials/intersection.net.xml"/>
    </output>

    <processing>
        <geometry.min-radius.fix.railways value="false"/>
        <geometry.max-grade.fix value="false"/>
        <offset.disable-normalization value="true"/>
        <lefthand value="false"/>
    </processing>

    <junctions>
        <no-turnarounds value="true"/>
        <junctions.corner-detail value="5"/>
        <junctions.limit-turn-speed value="5.5"/>
        <rectangular-lane-cut value="false"/>
    </junctions>

    <pedestrian>
        <walkingareas value="false"/>
    </pedestrian>

    <report>
        <aggregate-warnings value="5"/>
    </report>

</configuration>
-->

<net version="1.6" junctionCornerDetail="5" limitTurnSpeed="5.50" xmlns:xsi="http://www.w3.org/2001/XMLSchema-instance" xsi:noNamespaceSchemaLocation="http://sumo.dlr.de/xsd/net_file.xsd">

    <location netOffset="0.00,0.00" convBoundary="-1400.00,0.00,1400.00,990.00" origBoundary="-10000000000.00,-10000000000.00,10000000000.00,10000000000.00" projParameter="!"/>

    <edge id=":gneJ1_0" function="internal">
        <lane id=":gneJ1_0_0" index="0" speed="12.73" length="15.02" shape="7.16,9.42 3.45,6.00 0.13,3.56 -2.80,2.09 -5.33,1.60"/>
    </edge>
    <edge id=":gneJ1_1" function="internal">
        <lane id=":gneJ1_1_0" index="0" speed="7.42" length="19.31" shape="7.16,9.42 3.31,4.60 2.79,1.16 5.59,-0.91 11.73,-1.60"/>
    </edge>
    <edge id=":gneJ1_2" function="internal">
        <lane id=":gneJ1_2_0" index="0" speed="5.47" length="9.74" shape="11.73,1.60 8.63,1.95 7.22,2.99 7.48,4.73 9.42,7.16"/>
    </edge>
    <edge id=":gneJ1_3" function="internal">
        <lane id=":gneJ1_3_0" index="0" speed="13.89" length="17.05" shape="11.73,1.60 -5.33,1.60"/>
    </edge>
    <edge id=":gneJ1_4" function="internal">
        <lane id=":gneJ1_4_0" index="0" speed="13.89" length="17.05" shape="-5.33,-1.60 11.73,-1.60"/>
    </edge>
    <edge id=":gneJ1_5" function="internal">
        <lane id=":gneJ1_5_0" index="0" speed="13.73" length="5.70" shape="-5.33,-1.60 -2.16,-1.05 0.09,-0.00"/>
    </edge>
    <edge id=":gneJ1_6" function="internal">
        <lane id=":gneJ1_6_0" index="0" speed="13.73" length="11.82" shape="0.09,-0.00 1.36,0.59 5.22,3.33 9.42,7.16"/>
    </edge>

    <edge id="-gneE0" from="gneJ1" to="gneJ0" priority="-1" length="140.00">
        <lane id="-gneE0_0" index="0" speed="13.89" length="140.00" shape="9.42,7.16 991.13,988.87"/>
    </edge>
    <edge id="-gneE1" from="gneJ2" to="gneJ1" priority="-1" length="140.00">
        <lane id="-gneE1_0" index="0" speed="13.89" length="140.00" shape="-1400.00,-1.60 -5.33,-1.60"/>
    </edge>
    <edge id="-gneE2" from="gneJ3" to="gneJ1" priority="-1" length="140.00">
        <lane id="-gneE2_0" index="0" speed="13.89" length="140.00" shape="1400.00,1.60 11.73,1.60"/>
    </edge>
    <edge id="gneE0" from="gneJ0" to="gneJ1" priority="-1" length="140.00">
        <lane id="gneE0_0" index="0" speed="13.89" length="140.00" shape="988.87,991.13 7.16,9.42"/>
    </edge>
    <edge id="gneE1" from="gneJ1" to="gneJ2" priority="-1" length="140.00">
        <lane id="gneE1_0" index="0" speed="13.89" length="140.00" shape="-5.33,1.60 -1400.00,1.60"/>
    </edge>
    <edge id="gneE2" from="gneJ1" to="gneJ3" priority="-1" length="140.00">
        <lane id="gneE2_0" index="0" speed="13.89" length="140.00" shape="11.73,-1.60 1400.00,-1.60"/>
    </edge>

    <junction id="gneJ0" type="dead_end" x="990.00" y="990.00" incLanes="-gneE0_0" intLanes="" shape="990.00,990.00 992.26,987.74 990.00,990.00"/>
    <junction id="gneJ1" type="right_before_left" x="0.00" y="0.00" incLanes="gneE0_0 -gneE2_0 -gneE1_0" intLanes=":gneJ1_0_0 :gneJ1_1_0 :gneJ1_2_0 :gneJ1_3_0 :gneJ1_4_0 :gneJ1_6_0" shape="6.03,10.55 10.55,6.03 9.43,4.46 9.43,3.91 9.82,3.51 10.58,3.28 11.73,3.20 11.73,-3.20 -5.33,-3.20 -5.33,3.20 -2.29,4.02 -0.49,5.04 1.50,6.47 3.67,8.31">
        <request index="0" response="001000" foes="001000" cont="0"/>
        <request index="1" response="111000" foes="111000" cont="0"/>
        <request index="2" response="000000" foes="100000" cont="0"/>
        <request index="3" response="000000" foes="100011" cont="0"/>
        <request index="4" response="000000" foes="000010" cont="0"/>
        <request index="5" response="001100" foes="001110" cont="1"/>
    </junction>
    <junction id="gneJ2" type="dead_end" x="-1400.00" y="0.00" incLanes="gneE1_0" intLanes="" shape="-1400.00,0.00 -1400.00,3.20 -1400.00,0.00"/>
    <junction id="gneJ3" type="dead_end" x="1400.00" y="0.00" incLanes="gneE2_0" intLanes="" shape="1400.00,0.00 1400.00,-3.20 1400.00,0.00"/>

    <junction id=":gneJ1_6_0" type="internal" x="0.09" y="-0.00" incLanes=":gneJ1_5_0 -gneE2_0" intLanes=":gneJ1_1_0 :gneJ1_2_0 :gneJ1_3_0"/>

    <connection from="-gneE1" to="gneE2" fromLane="0" toLane="0" via=":gneJ1_4_0" dir="s" state="M"/>
    <connection from="-gneE1" to="-gneE0" fromLane="0" toLane="0" via=":gneJ1_5_0" dir="l" state="m"/>
    <connection from="-gneE2" to="-gneE0" fromLane="0" toLane="0" via=":gneJ1_2_0" dir="r" state="M"/>
    <connection from="-gneE2" to="gneE1" fromLane="0" toLane="0" via=":gneJ1_3_0" dir="s" state="M"/>
    <connection from="gneE0" to="gneE1" fromLane="0" toLane="0" via=":gneJ1_0_0" dir="r" state="m"/>
    <connection from="gneE0" to="gneE2" fromLane="0" toLane="0" via=":gneJ1_1_0" dir="l" state="m"/>

    <connection from=":gneJ1_0" to="gneE1" fromLane="0" toLane="0" dir="r" state="M"/>
    <connection from=":gneJ1_1" to="gneE2" fromLane="0" toLane="0" dir="l" state="M"/>
    <connection from=":gneJ1_2" to="-gneE0" fromLane="0" toLane="0" dir="r" state="M"/>
    <connection from=":gneJ1_3" to="gneE1" fromLane="0" toLane="0" dir="s" state="M"/>
    <connection from=":gneJ1_4" to="gneE2" fromLane="0" toLane="0" dir="s" state="M"/>
    <connection from=":gneJ1_5" to="-gneE0" fromLane="0" toLane="0" via=":gneJ1_6_0" dir="l" state="m"/>
    <connection from=":gneJ1_6" to="-gneE0" fromLane="0" toLane="0" dir="l" state="M"/>

</net>
