<?xml version="1.0" encoding="UTF-8"?>

<routes xmlns:xsi="http://www.w3.org/2001/XMLSchema-instance" xsi:noNamespaceSchemaLocation="http://sumo.dlr.de/xsd/routes_file.xsd">
    <route edges="street_right_to_middle street_middle_to_left" color="yellow" id="route_right_to_left"/>
    <route edges="street_top_to_middle street_middle_to_left" color="yellow" id="route_top_to_left"/>

    <flow id="fl_right_to_left" color="255,90,0" route="route_right_to_left" probability=".1"/> 
    <flow id="fl_top_to_left" color="255,90,0" route="route_top_to_left" probability=".15"/>
</routes>
